Version 4.1
SHEET 1 2292 840
WIRE 1600 176 1584 176
WIRE 1712 176 1680 176
WIRE 1584 272 1584 176
WIRE 1584 272 1536 272
WIRE 1920 272 1904 272
WIRE 2032 272 2000 272
WIRE 528 320 368 320
WIRE 688 320 624 320
WIRE 832 320 768 320
WIRE 976 320 928 320
WIRE 992 320 976 320
WIRE 1136 320 1072 320
WIRE 1648 336 1648 320
WIRE 368 352 368 320
WIRE 1584 352 1584 272
WIRE 1616 352 1584 352
WIRE 1712 368 1712 176
WIRE 1712 368 1680 368
WIRE 1776 368 1712 368
WIRE 1904 368 1904 272
WIRE 1904 368 1856 368
WIRE 576 384 576 352
WIRE 880 384 880 352
WIRE 1568 384 1536 384
WIRE 1616 384 1568 384
WIRE 1568 416 1568 384
WIRE 1648 416 1648 400
WIRE 976 432 976 320
WIRE 1136 432 1136 320
WIRE 1968 432 1968 416
WIRE 1904 448 1904 368
WIRE 1936 448 1904 448
WIRE 2032 464 2032 272
WIRE 2032 464 2000 464
WIRE 2080 464 2032 464
WIRE 1888 480 1856 480
WIRE 1936 480 1888 480
WIRE 1888 512 1888 480
WIRE 1968 512 1968 496
WIRE 512 608 352 608
WIRE 672 608 608 608
WIRE 816 608 752 608
WIRE 352 640 352 608
WIRE 560 672 560 640
WIRE 816 720 816 608
FLAG 368 432 0
FLAG 576 384 0
FLAG 880 384 0
FLAG 1136 432 0
FLAG 2080 464 Vout
FLAG 352 720 0
FLAG 560 672 0
FLAG 816 720 0
FLAG 1376 272 0
FLAG 1648 240 0
FLAG 1648 496 0
FLAG 1456 384 0
FLAG 1568 576 0
FLAG 1968 336 0
FLAG 1968 592 0
FLAG 1776 480 0
FLAG 1888 672 0
SYMBOL voltage 368 336 R0
WINDOW 123 0 0 Left 0
WINDOW 39 24 124 Left 2
SYMATTR SpiceLine Rser=50
SYMATTR InstName V1
SYMATTR Value SINE(0 1m 10G)
SYMBOL ADL8124 576 320 R0
SYMATTR InstName U2
SYMBOL res 784 304 R90
WINDOW 0 0 56 VBottom 2
WINDOW 3 32 56 VTop 2
SYMATTR InstName R1
SYMATTR Value 50
SYMBOL ADL8124 880 320 R0
SYMATTR InstName U3
SYMBOL res 1088 304 R90
WINDOW 0 0 56 VBottom 2
WINDOW 3 32 56 VTop 2
SYMATTR InstName R2
SYMATTR Value 50
SYMBOL voltage 352 624 R0
WINDOW 123 0 0 Left 0
WINDOW 39 24 124 Left 2
SYMATTR SpiceLine Rser=50
SYMATTR InstName V2
SYMATTR Value SINE(0 1m 10G)
SYMBOL ADL8124 560 608 R0
SYMATTR InstName U1
SYMBOL res 768 592 R90
WINDOW 0 0 56 VBottom 2
WINDOW 3 32 56 VTop 2
SYMATTR InstName R3
SYMATTR Value 50
SYMBOL voltage 1472 272 R90
WINDOW 0 -32 56 VBottom 2
WINDOW 3 -91 67 VTop 2
WINDOW 123 0 0 Left 0
WINDOW 39 0 0 Left 0
SYMATTR InstName V3
SYMATTR Value SINE(0 1m 1Meg)
SYMBOL res 1552 256 R90
WINDOW 0 0 56 VBottom 2
WINDOW 3 3 59 VTop 2
SYMATTR InstName R4
SYMATTR Value 100
SYMBOL res 1696 160 R90
WINDOW 0 0 56 VBottom 2
WINDOW 3 2 57 VTop 2
SYMATTR InstName R5
SYMATTR Value 2000
SYMBOL voltage 1648 336 R180
WINDOW 0 24 96 Left 2
WINDOW 3 -7 58 Left 2
WINDOW 123 0 0 Left 0
WINDOW 39 0 0 Left 0
SYMATTR InstName V4
SYMATTR Value 5
SYMBOL OpAmps\\LT1818 1648 368 R0
SYMATTR InstName U4
SYMBOL voltage 1648 400 R0
WINDOW 0 26 99 Left 2
WINDOW 3 -15 59 Left 2
WINDOW 123 0 0 Left 0
WINDOW 39 0 0 Left 0
SYMATTR InstName V5
SYMATTR Value -5
SYMBOL res 1552 368 R90
WINDOW 0 0 56 VBottom 2
WINDOW 3 2 57 VTop 2
SYMATTR InstName R6
SYMATTR Value 100
SYMBOL voltage 1568 480 R0
WINDOW 0 24 96 Left 2
WINDOW 3 -27 57 Left 2
WINDOW 123 0 0 Left 0
WINDOW 39 0 0 Left 0
SYMATTR InstName V6
SYMATTR Value 0.2m
SYMBOL res 1584 512 R180
WINDOW 0 36 76 Left 2
WINDOW 3 -6 57 Left 2
SYMATTR InstName R7
SYMATTR Value 100
SYMBOL res 1872 352 R90
WINDOW 0 0 56 VBottom 2
WINDOW 3 3 58 VTop 2
SYMATTR InstName R8
SYMATTR Value 100
SYMBOL res 2016 256 R90
WINDOW 0 0 56 VBottom 2
WINDOW 3 3 55 VTop 2
SYMATTR InstName R9
SYMATTR Value 2000
SYMBOL voltage 1968 432 R180
WINDOW 0 24 96 Left 2
WINDOW 3 -7 58 Left 2
WINDOW 123 0 0 Left 0
WINDOW 39 0 0 Left 0
SYMATTR InstName V8
SYMATTR Value 5
SYMBOL OpAmps\\LT1818 1968 464 R0
SYMATTR InstName U5
SYMBOL voltage 1968 496 R0
WINDOW 0 24 96 Left 2
WINDOW 3 -13 58 Left 2
WINDOW 123 0 0 Left 0
WINDOW 39 0 0 Left 0
SYMATTR InstName V9
SYMATTR Value -5
SYMBOL res 1872 464 R90
WINDOW 0 0 56 VBottom 2
WINDOW 3 3 60 VTop 2
SYMATTR InstName R10
SYMATTR Value 100
SYMBOL voltage 1888 576 R0
WINDOW 0 24 96 Left 2
WINDOW 3 -28 55 Left 2
WINDOW 123 0 0 Left 0
WINDOW 39 0 0 Left 0
SYMATTR InstName V10
SYMATTR Value 0.2m
SYMBOL res 1904 608 R180
WINDOW 0 36 76 Left 2
WINDOW 3 -3 58 Left 2
SYMATTR InstName R11
SYMATTR Value 100
TEXT 384 88 Left 2 !.noise V(Vout) V1 dec 100 100 20G
TEXT 384 168 Left 2 ;.tran 0 200n 0 500p
TEXT 384 128 Left 2 !.include ADL8124.inc
TEXT 496 -288 Left 2 ;Las simulaciones realizadas con algunos componentes obtenidos mediante\ns2spice pueden provocar alteraciones en otras simulaciones en el mismo\ndocumento. Al simular con s2spice, se recomienda eliminar momentáneamente\nlos circuitos que no estén siendo evaluados.
TEXT 1376 -24 Left 2 ;Este circuito busca entender las variaciones en el nivel de ruido\ncuando se distribuyen de distintas formas las fases de amplificación.\nEste test es a 1MHz, con el fin de evitar utilizar modelos de s2spice\nen esta simulación. La teoría también debiese aplicar en GHz.
